    53

C        0.590000     -2.405000    -16.651000
H        0.907000     -1.656000    -15.934000
H        0.197000     -3.253000    -16.104000
N       -0.468000     -1.854000    -17.444000
H       -0.256000     -1.972000    -18.411000
C       -1.547000     -1.283000    -17.163000
H       -2.188000     -0.953000    -17.956000
C       -1.937000     -1.064000    -15.734000
H       -1.619000     -1.630000    -14.880000
C       -2.729000     -0.039000    -15.523000
C       -3.182000      0.797000    -16.684000
H       -2.798000      0.468000    -17.635000
H       -2.868000      1.824000    -16.541000
H       -4.264000      0.784000    -16.746000
C       -3.183000      0.237000    -14.164000
H       -2.722000     -0.158000    -13.277000
C       -4.240000      1.034000    -14.030000
H       -4.773000      1.512000    -14.830000
C       -4.706000      1.268000    -12.658000
H       -4.315000      0.670000    -11.854000
C       -5.633000      2.200000    -12.354000
C       -6.221000      3.094000    -13.420000
H       -5.830000      2.900000    -14.406000
H       -6.022000      4.133000    -13.183000
H       -7.297000      2.967000    -13.459000
C       -6.035000      2.335000    -10.935000
H       -5.366000      1.990000    -10.166000
C       -7.207000      2.884000    -10.573000
H       -7.919000      3.280000    -11.275000
C       -7.566000      3.011000     -9.139000
C       -7.570000      1.780000     -8.221000
C       -8.098000      0.523000     -8.917000
H       -7.577000      0.337000     -9.852000
H       -9.162000      0.577000     -9.124000
H       -7.944000     -0.341000     -8.277000
C       -6.154000      1.445000     -7.770000
H       -6.163000      0.595000     -7.094000
H       -5.701000      2.279000     -7.246000
H       -5.513000      1.198000     -8.610000
C       -8.363000      1.977000     -6.940000
H       -8.093000      1.216000     -6.209000
H       -9.426000      1.858000     -7.132000
C       -8.070000      3.350000     -6.341000
H       -7.024000      3.380000     -6.050000
H       -8.649000      3.459000     -5.429000
C       -8.381000      4.500000     -7.297000
H       -7.922000      5.411000     -6.915000
H       -9.447000      4.711000     -7.351000
C       -7.861000      4.260000     -8.711000
C       -7.686000      5.477000     -9.607000
H       -8.653000      5.879000     -9.900000
H       -7.117000      5.277000    -10.503000
H       -7.178000      6.262000     -9.053000
