53

C     0.5900000  -2.4050000 -16.6510000
H     0.9070000  -1.6560000 -15.9340000
H     0.1970000  -3.2530000 -16.1040000
N    -0.4680000  -1.8540000 -17.4440000
H    -0.2560000  -1.9720000 -18.4110000
C    -1.5470000  -1.2830000 -17.1630000
H    -2.1880000  -0.9530000 -17.9560000
C    -1.9370000  -1.0640000 -15.7340000
H    -1.6190000  -1.6300000 -14.8800000
C    -2.7290000  -0.0390000 -15.5230000
C    -3.1820000   0.7970000 -16.6840000
H    -2.7980000   0.4680000 -17.6350000
H    -2.8680000   1.8240000 -16.5410000
H    -4.2640000   0.7840000 -16.7460000
C    -3.1830000   0.2370000 -14.1640000
H    -2.7220000  -0.1580000 -13.2770000
C    -4.2400000   1.0340000 -14.0300000
H    -4.7730000   1.5120000 -14.8300000
C    -4.7060000   1.2680000 -12.6580000
H    -4.3150000   0.6700000 -11.8540000
C    -5.6330000   2.2000000 -12.3540000
C    -6.2210000   3.0940000 -13.4200000
H    -5.8300000   2.9000000 -14.4060000
H    -6.0220000   4.1330000 -13.1830000
H    -7.2970000   2.9670000 -13.4590000
C    -6.0350000   2.3350000 -10.9350000
H    -5.3660000   1.9900000 -10.1660000
C    -7.2070000   2.8840000 -10.5730000
H    -7.9190000   3.2800000 -11.2750000
C    -7.5660000   3.0110000  -9.1390000
C    -7.5700000   1.7800000  -8.2210000
C    -8.0980000   0.5230000  -8.9170000
H    -7.5770000   0.3370000  -9.8520000
H    -9.1620000   0.5770000  -9.1240000
H    -7.9440000  -0.3410000  -8.2770000
C    -6.1540000   1.4450000  -7.7700000
H    -6.1630000   0.5950000  -7.0940000
H    -5.7010000   2.2790000  -7.2460000
H    -5.5130000   1.1980000  -8.6100000
C    -8.3630000   1.9770000  -6.9400000
H    -8.0930000   1.2160000  -6.2090000
H    -9.4260000   1.8580000  -7.1320000
C    -8.0700000   3.3500000  -6.3410000
H    -7.0240000   3.3800000  -6.0500000
H    -8.6490000   3.4590000  -5.4290000
C    -8.3810000   4.5000000  -7.2970000
H    -7.9220000   5.4110000  -6.9150000
H    -9.4470000   4.7110000  -7.3510000
C    -7.8610000   4.2600000  -8.7110000
C    -7.6860000   5.4770000  -9.6070000
H    -8.6530000   5.8790000  -9.9000000
H    -7.1170000   5.2770000 -10.5030000
H    -7.1780000   6.2620000  -9.0530000
